4lr6
  PyMOL184          3D                             0

 13 14  0  0  0  0  0  0  0  0999 V2000
   -2.2610   -9.7714    9.0684 C   0  0  0  0  0  0  0  0  0  0  0  0
   -1.0030   -9.3803    8.6244 C   0  0  0  0  0  0  0  0  0  0  0  0
   -1.2130   -8.4572    7.6015 C   0  0  0  0  0  0  0  0  0  0  0  0
   -0.1480   -7.7231    6.7856 C   0  0  0  0  0  0  0  0  0  0  0  0
    0.2310   -9.7924    9.1354 C   0  0  0  0  0  0  0  0  0  0  0  0
    0.3850   -9.9896   10.5113 C   0  0  0  0  0  0  0  0  0  0  0  0
    1.6130  -10.3866   11.0363 C   0  0  0  0  0  0  0  0  0  0  0  0
    2.7030  -10.5845   10.1943 C   0  0  0  0  0  0  0  0  0  0  0  0
    2.5590  -10.3813    8.8243 C   0  0  0  0  0  0  0  0  0  0  0  0
    1.3300   -9.9873    8.2983 C   0  0  0  0  0  0  0  0  0  0  0  0
   -2.5190   -8.2972    7.4126 N   0  0  0  0  0  0  0  0  0  0  0  0
   -2.5390  -10.6375   10.0403 N   0  0  0  0  0  0  0  0  0  0  0  0
   -3.2060   -9.1223    8.3355 O   0  0  0  0  0  0  0  0  0  0  0  0
  1 12  1  0  0  0  0
  1  2  4  0  0  0  0
  2  3  4  0  0  0  0
  3  4  1  0  0  0  0
  3 11  4  0  0  0  0
  2  5  1  0  0  0  0
  5  6  4  0  0  0  0
  6  7  4  0  0  0  0
  7  8  4  0  0  0  0
  8  9  4  0  0  0  0
  9 10  4  0  0  0  0
  5 10  4  0  0  0  0
 11 13  4  0  0  0  0
  1 13  4  0  0  0  0
M  END
$$$$
